LAMMPS (22 Jul 2025 - Update 1)
units real
atom_style full
boundary p p p

pair_style lj/cut/tip4p/long 1 2 1 1 0.1546 9.5
bond_style zero
angle_style zero
pair_modify tail yes

read_data data_225.data
Reading data file ...
  triclinic box = (-0.20081916 -0.20081916 -0.20081916) to (49.991339 49.991339 49.991339) with tilt (0 0 0)
  reading atoms ...
  12288 atoms
  reading velocities ...
  12288 velocities
  scanning bonds ...
  scanning angles ...
  triclinic box = (-0.20081916 -0.20081916 -0.20081916) to (49.991339 49.991339 49.991339) with tilt (0 0 0)
  reading bonds ...
  8192 bonds
  reading angles ...
  4096 angles
Finding 1-2 1-3 1-4 neighbors ...
     2 = max # of 1-2 neighbors
     1 = max # of 1-3 neighbors
     1 = max # of 1-4 neighbors
     2 = max # of special neighbors
print "Equilibrium configuration loaded from NPT run"
Equilibrium configuration loaded from NPT run

kspace_style pppm/tip4p 1.0e-5
pair_coeff 1 1 0.18521 3.1589 #O-O
pair_coeff * 2 0.0 0.0 #O-H/H-H
bond_coeff 1 0.9572 #O-H
angle_coeff 1 104.52 #H-O-H

group gH2O type 1 2
12288 atoms in group gH2O
group gO type 1
4096 atoms in group gO

neighbor 3.0 bin
neigh_modify delay 0 every 1 check yes

timestep 1.0
fix 1 gH2O shake 1.0e-4 100 0 b 1 a 1
Finding SHAKE clusters ...
       0 = # of size 2 clusters
       0 = # of size 3 clusters
       0 = # of size 4 clusters
    4096 = # of frozen angles
  find clusters CPU = 0.004 seconds

variable massAll equal mass(all)/6.022e23
variable volCm3 equal vol*1.0e-24
variable density_sys equal v_massAll/v_volCm3
variable tmp equal temp

thermo 1000
thermo_style custom step temp vol etotal pe lx v_density_sys
thermo_modify flush yes

fix fnpt all npt temp 225.0 225.0 100.0 iso 0.9869 0.9869 1000.0
dump dH2O gH2O custom 200 dump_H2O_225.lammpstrj id type xu yu zu # 间隔0.2ps采样
dump_modify dH2O sort id
run 2000000 # 2ns
PPPM initialization ...
  extracting TIP4P info from pair style
  G vector (1/distance) = 0.32754946
  grid = 50 50 50
  stencil order = 5
  estimated absolute RMS force accuracy = 0.0036668591
  estimated relative force accuracy = 1.1042637e-05
  3d grid and FFT values/proc = 11424 2800
Generated 0 of 1 mixed pair_coeff terms from geometric mixing rule
Step          Temp          Volume         TotEng         PotEng           Lx       v_density_sys
0   226.11034      126446.73     -46573.443     -52094.111      50.192158      0.96906001
Averages over the last 1001 of 2001 rows, steps 1000000 to 2000000:
Temp Volume TotEng PotEng Lx v_density_sys
225.051 126485 -46539.8 -52034.6 50.1972 0.96878
Loop time of 9944.32 on 56 procs for 2000000 steps with 12288 atoms

undump dH2O
