LAMMPS (22 Jul 2025 - Development - patch_22Jul2025-72-g8b7fdf9ad3-modified)
units real
atom_style full
boundary p p p

pair_style lj/cut/tip4p/long 1 2 1 1 0.1546 12
kspace_style pppm/tip4p 1.0e-6

bond_style harmonic
angle_style harmonic

read_data 150MPa.data
Reading data file ...
  orthogonal box = (3.5496343 3.5496343 3.5496343) to (27.810365 27.810365 27.810365)
  reading atoms ...
  1536 atoms
  reading velocities ...
  1536 velocities
  scanning bonds ...
  scanning angles ...
  orthogonal box = (3.5496343 3.5496343 3.5496343) to (27.810365 27.810365 27.810365)
  reading bonds ...
  1024 bonds
  reading angles ...
  512 angles
Finding 1-2 1-3 1-4 neighbors ...
     2 = max # of 1-2 neighbors
     1 = max # of 1-3 neighbors
     1 = max # of 1-4 neighbors
     2 = max # of special neighbors

pair_coeff 1 1 0.18521 3.1589 #O-O
pair_coeff 1 2 0.0 0.0 #O-H
pair_coeff 2 2 0.0 1.0 #H-H
pair_modify tail yes

bond_coeff 1 1000.0 0.9572 #O-H
angle_coeff 1 100.0 104.52 #H-O-H

group gH2O type 1 2
1536 atoms in group gH2O
group gO type 1
512 atoms in group gO

neighbor 3.0 bin
neigh_modify delay 0 every 1 check yes

reset_timestep 0
fix 1 gH2O shake 1.0e-4 100 0 b 1 a 1
Finding SHAKE clusters ...
       0 = # of size 2 clusters
       0 = # of size 3 clusters
       0 = # of size 4 clusters
     512 = # of frozen angles
  find clusters CPU = 0.001 seconds
timestep 1.0 # 1fs

compute rdf1 gH2O rdf 100 1 1 1 2 2 2
variable massAll equal mass(all)/6.022e23
variable volCm3 equal vol*1.0e-24
variable density_sys equal v_massAll/v_volCm3

thermo_style custom step temp vol etotal pe ke epair ecoul lx ly lz v_density_sys
thermo 1000
fix fnpt all npt temp 225.0 225.0 1000.0 iso 1480.3849 1480.3849 5000.0

dump dO gO custom 100 dump_O.lammpstrj id xu yu zu # 0.1ps
dump_modify dO sort id

run 250000 # 250ps
PPPM initialization ...
  extracting TIP4P info from pair style
  G vector (1/distance) = 0.28789612
  grid = 32 32 32
  stencil order = 5
  estimated absolute RMS force accuracy = 0.00035580512
  estimated relative force accuracy = 1.0714965e-06
  3d grid and FFT values/proc = 15625 4096
Generated 0 of 1 mixed pair_coeff terms from geometric mixing rule
Step          Temp          Volume         TotEng         PotEng         KinEng         E_pair         E_coul           Lx             Ly             Lz       v_density_sys
0   228.31163      14279.455     -5759.7948     -6456.0012      696.20633     -6456.0012      43571.911      24.260731      24.260731      24.260731      1.0726466
Averages over the last 126 of 251 rows, steps 125000 to 250000:
Temp Volume TotEng PotEng KinEng E_pair E_coul Lx Ly Lz v_density_sys
224.897 14241.5 -5718.6 -6404.39 685.793 -6404.39 43596.5 24.2389 24.2389 24.2389 1.07564
Loop time of 3493.44 on 8 procs for 250000 steps with 1536 atoms
